     240
 i =        2, E =     -7233.5867941204
  O         3.2545095953        2.9622482710        5.2295077467
 Ti         0.0000197084        2.9622490774        6.6522313541
 Ti         3.2545173136        1.4811253071        6.2907525265
  O         6.5090394896        2.9622535687        8.4653602229
  O         3.2545125740        2.9622460112        7.7764768921
  O         1.2139293908        1.4811226820        6.3177193174
  O         5.2950925733        1.4811227001        6.3177246593
 Ti         3.2542390671        2.9622655384        9.6361259295
 Ti        -0.0003281141        1.4811271700        9.8318212147
  O         3.2545296788        2.9621939303       11.7457181369
  O         6.5090415845        2.9622438579       11.0195331298
  O         4.5566087228        1.4811187411        9.7407452343
  O         1.9525253333        1.4811179847        9.7407347850
  O         3.2545094867        5.9244990020        5.2295165416
 Ti         0.0000152574        5.9244980830        6.6522307476
 Ti         3.2545165169        4.4433693622        6.2907476451
  O         6.5090360219        5.9244917782        8.4653586792
  O         3.2545148274        5.9244985539        7.7764749232
  O         1.2139296433        4.4433749159        6.3177166047
  O         5.2950926603        4.4433749575        6.3177206582
 Ti         3.2543158288        5.9244958078        9.6361319562
 Ti        -0.0002941517        4.4433772415        9.8318455681
  O         3.2545298035        5.9245111346       11.7457387317
  O         6.5090396031        5.9245012654       11.0195333439
  O         4.5565995423        4.4433661997        9.7407531762
  O         1.9525315173        4.4433699183        9.7407439612
  O         3.2545094212        8.8867488488        5.2295080424
 Ti         0.0000182601        8.8867493233        6.6522314980
 Ti         3.2545160439        7.4056250736        6.2907521431
  O         6.5090374524        8.8867527196        8.4653599102
  O         3.2545152795        8.8867464565        7.7764767930
  O         1.2139296427        7.4056233737        6.3177192705
  O         5.2950929178        7.4056232926        6.3177216585
 Ti         3.2543344727        8.8867613354        9.6361288251
 Ti        -0.0002229118        7.4056272491        9.8318209967
  O         3.2545295078        8.8866943383       11.7457159833
  O         6.5090401904        8.8867433642       11.0195326315
  O         4.5566036758        7.4056173662        9.7407425750
  O         1.9525226807        7.4056182360        9.7407355501
  O         3.2545095408       11.8489984905        5.2295202240
 Ti         0.0000158066       11.8489978442        6.6522315252
 Ti         3.2545159982       10.3678669926        6.2907512529
  O         6.5090375952       11.8489919734        8.4653598696
  O         3.2545130500       11.8489989827        7.7764793425
  O         1.2139301485       10.3678755118        6.3177185456
  O         5.2950922364       10.3678752495        6.3177216769
 Ti         3.2542572323       11.8489953540        9.6361331381
 Ti        -0.0002648941       10.3678775514        9.8318454326
  O         3.2545298389       11.8490111171       11.7457381592
  O         6.5090406818       11.8490009577       11.0195338664
  O         4.5565994746       10.3678697071        9.7407539935
  O         1.9525295382       10.3678660929        9.7407455141
  O         9.7635078470        2.9622486820        5.2295232634
 Ti         6.5090162455        2.9622492148        6.6522300505
 Ti         9.7635194684        1.4811151301        6.2907517009
  O        13.0180373502        2.9622536077        8.4653613411
  O         9.7635110431        2.9622464351        7.7764774289
  O         7.7229312889        1.4811254852        6.3177193810
  O        11.8040943434        1.4811254481        6.3177241638
 Ti         9.7632395801        2.9622601313        9.6361341773
 Ti         6.5086636265        1.4811270890        9.8318213472
  O         9.7635292956        2.9621927917       11.7457474487
  O        13.0180410030        2.9622441407       11.0195324844
  O        11.0656074633        1.4811184884        9.7407449703
  O         8.4615266225        1.4811174095        9.7407326396
  O         9.7635076464        5.9244990982        5.2295008870
 Ti         6.5090185875        5.9244979242        6.6522293282
 Ti         9.7635194051        4.4433804142        6.2907478250
  O        13.0180376579        5.9244919574        8.4653600414
  O         9.7635132561        5.9244984381        7.7764753338
  O         7.7229315152        4.4433722462        6.3177174698
  O        11.8040943824        4.4433724779        6.3177215149
 Ti         9.7633165153        5.9244972477        9.6361236811
 Ti         6.5087127646        4.4433770654        9.8318472769
  O         9.7635295199        5.9245144273       11.7457099172
  O        13.0180402064        5.9245011846       11.0195328192
  O        11.0656006905        4.4433673558        9.7407539686
  O         8.4615305500        4.4433710528        9.7407433557
  O         9.7635074751        8.8867488946        5.2295234110
 Ti         6.5090146248        8.8867495170        6.6522300488
 Ti         9.7635180312        7.4056155818        6.2907516574
  O        13.0180354433        8.8867526214        8.4653612543
  O         9.7635136858        8.8867461893        7.7764772717
  O         7.7229315422        7.4056259803        6.3177200817
  O        11.8040947992        7.4056260322        6.3177219201
 Ti         9.7633348344        8.8867642964        9.6361364060
 Ti         6.5087768402        7.4056269776        9.8318211101
  O         9.7635290821        8.8866926896       11.7457457589
  O        13.0180396977        8.8867435639       11.0195322085
  O        11.0656041091        7.4056167292        9.7407430007
  O         8.4615224507        7.4056176454        9.7407340411
  O         9.7635076642       11.8489987337        5.2295026862
 Ti         6.5090194222       11.8489976921        6.6522300684
 Ti         9.7635187991       10.3678790927        6.2907502644
  O        13.0180385024       11.8489922135        8.4653614128
  O         9.7635116326       11.8489986566        7.7764769919
  O         7.7229319623       10.3678726311        6.3177181637
  O        11.8040940900       10.3678725900        6.3177214222
 Ti         9.7632578587       11.8489977139        9.6361244319
 Ti         6.5087355603       10.3678773531        9.8318468889
  O         9.7635294172       11.8490144775       11.7457100189
  O        13.0180404598       11.8490011144       11.0195334290
  O        11.0655995929       10.3678703344        9.7407542769
  O         8.4615300346       10.3678666599        9.7407444086
 Ti         0.0000357588        0.0000263460       13.0238609366
 Ti         3.2545352423        1.4816746888       13.0251646239
  O         0.0000076818        2.9622522652       15.0375550837
  O         3.2545163751       -0.0000392069       14.2942150600
  O         1.2412133420        1.4811197284       13.0331824763
  O         5.2678742206        1.4811202480       13.0331739476
 Ti         3.2542607314        2.9622452963       16.4213791272
 Ti        -0.0003100267        1.4811280963       16.2160611497
  O         3.2544938661        2.9622495237       18.2804916605
  O         6.5090045588        2.9622431921       17.5876158043
  O         4.5537846658        1.4811197890       16.3026468842
  O         1.9552101512        1.4811202694       16.3026627166
 Ti         0.0000086796        2.9622487010       19.3958690679
 Ti         3.2545094390        1.4811296438       19.7691992436
  O         3.2545020222        2.9622497913       20.8337638409
  O         1.2155687127        1.4811232552       19.7249624586
  O         5.2934411919        1.4811232357       19.7249634809
 Ti         0.0000584404        2.9622758610       13.0238608652
 Ti         3.2545355262        4.4439038888       13.0260285116
  O         0.0000082325        5.9244947762       15.0375540677
  O         3.2545164299        2.9622643729       14.2942386845
  O         1.2412115080        4.4433775468       13.0331665859
  O         5.2678759154        4.4433769655       13.0331589977
 Ti         3.2542532772        5.9245187736       16.4213766145
 Ti        -0.0002972648        4.4433786005       16.2160881843
  O         3.2544935164        5.9244974509       18.2804916684
  O         6.5090030258        5.9245034658       17.5876167461
  O         4.5537912743        4.4433700618       16.3026570267
  O         1.9552034794        4.4433695191       16.3026724444
 Ti         0.0000054864        5.9245003638       19.3958695528
 Ti         3.2545094656        4.4433707368       19.7691959702
  O         3.2545020633        5.9244992992       20.8337537761
  O         1.2155682782        4.4433754259       19.7249615095
  O         5.2934416313        4.4433754428       19.7249624108
 Ti         0.0000356413        5.9245256281       13.0238604937
 Ti         3.2545321393        7.4061759707       13.0251662022
  O         0.0000075776        8.8867519339       15.0375548574
  O         3.2545163542        5.9244619611       14.2942146528
  O         1.2412123496        7.4056187551       13.0331809939
  O         5.2678731173        7.4056192495       13.0331752412
 Ti         3.2542464168        8.8867437306       16.4213845573
 Ti        -0.0003220224        7.4056277195       16.2160610762
  O         3.2544931920        8.8867496567       18.2804917533
  O         6.5090045219        8.8867428101       17.5876156204
  O         4.5537838094        7.4056203110       16.3026470657
  O         1.9552102455        7.4056198254       16.3026634352
 Ti         0.0000088786        8.8867493134       19.3958688081
 Ti         3.2545096341        7.4056272257       19.7692014814
  O         3.2545020542        8.8867498610       20.8337644455
  O         1.2155686497        7.4056238350       19.7249626445
  O         5.2934411899        7.4056237329       19.7249635402
 Ti         0.0000522692        8.8867755295       13.0238607179
 Ti         3.2545319160       10.3684028105       13.0260313313
  O         0.0000078632       11.8489947360       15.0375539390
  O         3.2545160726        8.8867648086       14.2942380048
  O         1.2412102215       10.3678774380       13.0331658195
  O         5.2678756687       10.3678771464       13.0331590438
 Ti         3.2542536132       11.8490187755       16.4213774277
 Ti        -0.0003051725       10.3678781950       16.2160879457
  O         3.2544935430       11.8489972028       18.2804907742
  O         6.5090030058       11.8490035891       17.5876161042
  O         4.5537911728       10.3678696315       16.3026554307
  O         1.9552027384       10.3678701828       16.3026714435
 Ti         0.0000054547       11.8489999905       19.3958689462
 Ti         3.2545096838       10.3678715997       19.7691983660
  O         3.2545020195       11.8489998086       20.8337531049
  O         1.2155684793       10.3678756500       19.7249615855
  O         5.2934413975       10.3678756888       19.7249623838
 Ti         6.5090471306        0.0000224753       13.0238626613
 Ti         9.7635357851        1.4816216697       13.0251327379
  O         6.5090082413        2.9622523048       15.0375567957
  O         9.7635171421       -0.0000401024       14.2942492174
  O         7.7502132015        1.4811286876       13.0331836880
  O        11.7768736712        1.4811293062       13.0331767202
 Ti         9.7632597271        2.9622502988       16.4213683008
 Ti         6.5087031875        1.4811279174       16.2160613400
  O         9.7634962271        2.9622490630       18.2804899485
  O        13.0180027328        2.9622433723       17.5876171861
  O        11.0627864874        1.4811193011       16.3026477011
  O         8.4642086933        1.4811197705       16.3026607896
 Ti         6.5090051259        2.9622485881       19.3958672881
 Ti         9.7635063987        1.4811200745       19.7691984017
  O         9.7635039388        2.9622497080       20.8337494556
  O         7.7245664164        1.4811256625       19.7249633846
  O        11.8024391143        1.4811256746       19.7249624461
 Ti         6.5090474891        2.9622719885       13.0238628685
 Ti         9.7635363793        4.4439163587       13.0260603341
  O         6.5090071685        5.9244946091       15.0375558172
  O         9.7635171448        2.9622668102       14.2942049278
  O         7.7502111043        4.4433689070       13.0331636080
  O        11.7768754373        4.4433682542       13.0331577296
 Ti         9.7632520274        5.9245114185       16.4213868790
 Ti         6.5086898315        4.4433783932       16.2160886498
  O         9.7634960002        5.9244982589       18.2804921909
  O        13.0180043851        5.9245034149       17.5876180841
  O        11.0627902604        4.4433709493       16.3026591237
  O         8.4642048868        4.4433703841       16.3026724209
 Ti         6.5090088700        5.9245002761       19.3958677074
 Ti         9.7635063722        4.4433799307       19.7691969073
  O         9.7635039451        5.9244994208       20.8337680563
  O         7.7245660496        4.4433730923       19.7249622437
  O        11.8024395096        4.4433731128       19.7249613260
 Ti         6.5090465738        5.9245216533       13.0238625095
 Ti         9.7635327321        7.4061225361       13.0251342197
  O         6.5090082142        8.8867519951       15.0375566148
  O         9.7635170836        5.9244607906       14.2942488905
  O         7.7502119459        7.4056278236       13.0331821657
  O        11.7768728306        7.4056281447       13.0331778735
 Ti         9.7632454310        8.8867525067       16.4213726166
 Ti         6.5086943352        7.4056276758       16.2160613440
  O         9.7634956134        8.8867488981       18.2804901398
  O        13.0180027517        8.8867429562       17.5876168923
  O        11.0627860912        7.4056197176       16.3026477498
  O         8.4642081879        7.4056192423       16.3026612901
 Ti         6.5090052005        8.8867491592       19.3958670589
 Ti         9.7635064283        7.4056185769       19.7692006314
  O         9.7635040010        8.8867498834       20.8337499687
  O         7.7245663266        7.4056261460       19.7249634408
  O        11.8024391756        7.4056261789       19.7249623297
 Ti         6.5090410898        8.8867715498       13.0238625910
 Ti         9.7635324939       10.3684155624       13.0260624885
  O         6.5090071720       11.8489945145       15.0375557556
  O         9.7635167134        8.8867667673       14.2942042347
  O         7.7502098903       10.3678685783       13.0331629925
  O        11.7768752219       10.3678681763       13.0331581660
 Ti         9.7632525103       11.8490111245       16.4213867347
 Ti         6.5086781989       10.3678781627       16.2160885338
  O         9.7634960635       11.8489980452       18.2804918936
  O        13.0180043187       11.8490035390       17.5876173842
  O        11.0627898189       10.3678703047       16.3026578595
  O         8.4642045840       10.3678708252       16.3026717195
 Ti         6.5090089141       11.8490000285       19.3958672217
 Ti         9.7635064110       10.3678810886       19.7691983697
  O         9.7635039467       11.8489998924       20.8337675508
  O         7.7245661979       10.3678732106       19.7249624545
  O        11.8024392698       10.3678732342       19.7249614174
